//OpenFOAM blockMeshDict
//Generated using BananaSplit orthogonal block meshing tool
//BananaSplit - by Alex Rattner, 2012, http://www.stwing.org/~salexa

FoamFile
{
  version	2.0;
  format	ascii;
  class		dictionary;
  object	blockMeshDict;
}

convertToMeters 1;

vertices
(
  (  0.000000	  0.000000	  0.000000)
  (  0.061600	  0.000000	  0.000000)
  (  0.061600	  0.005200	  0.000000)
  (  0.000000	  0.005200	  0.000000)
  (  0.000000	  0.000000	  0.000360)
  (  0.061600	  0.000000	  0.000360)
  (  0.061600	  0.005200	  0.000360)
  (  0.000000	  0.005200	  0.000360)
  (  0.117600	  0.000000	  0.000000)
  (  0.117600	  0.012600	  0.000000)
  (  0.061600	  0.012600	  0.000000)
  (  0.117600	  0.000000	  0.000360)
  (  0.117600	  0.012600	  0.000360)
  (  0.061600	  0.012600	  0.000360)
  (  0.000000	  0.007400	  0.000000)
  (  0.061600	  0.007400	  0.000000)
  (  0.000000	  0.012600	  0.000000)
  (  0.000000	  0.007400	  0.000360)
  (  0.061600	  0.007400	  0.000360)
  (  0.000000	  0.012600	  0.000360)
  (  0.117600	  0.005200	  0.000000)
  (  0.117600	  0.005200	  0.000360)
  (  0.117600	  0.007400	  0.000000)
  (  0.117600	  0.007400	  0.000360)
);

blocks
(
  hex ( 0 1 2 3 4 5 6 7) (308 28 10) simpleGrading (1 1 1)
  hex ( 1 8 20 2 5 11 21 6) (280 28 10) simpleGrading (1 1 1)
  hex ( 14 15 10 16 17 18 13 19) (308 28 10) simpleGrading (1 1 1)
  hex ( 2 20 22 15 6 21 23 18) (280 12 10) simpleGrading (1 1 1)
  hex ( 15 22 9 10 18 23 12 13) (280 28 10) simpleGrading (1 1 1)
);

edges
(
);

patches
(
  patch inlet
  (
    (0 4 7 3)
  )

  patch walls
  (
    (3 7 6 2)
    (0 1 5 4)
    (0 3 2 1)
    (4 5 6 7)
    (8 20 21 11)
    (1 8 11 5)
    (1 2 20 8)
    (5 11 21 6)
    (16 19 13 10)
    (14 15 18 17)
    (14 16 10 15)
    (17 18 13 19)
    (2 6 18 15)
    (20 22 23 21)
    (2 15 22 20)
    (6 21 23 18)
    (10 13 12 9)
    (22 9 12 23)
    (15 10 9 22)
    (18 23 12 13)
  )

  patch outlet
  (
    (14 17 19 16)
  )

);

mergePatchPairs();

