//OpenFOAM blockMeshDict
//Generated using BananaSplit orthogonal block meshing tool
//BananaSplit - by Alex Rattner, 2012, http://www.stwing.org/~salexa

FoamFile
{
  version	2.0;
  format	ascii;
  class		dictionary;
  object	blockMeshDict;
}

convertToMeters 1;

vertices
(
  (  0.000000	  0.000000	  0.000000)
  (  1.000000	  0.000000	  0.000000)
  (  1.000000	  1.000000	  0.000000)
  (  0.000000	  1.000000	  0.000000)
  (  0.000000	  0.000000	  1.000000)
  (  1.000000	  0.000000	  1.000000)
  (  1.000000	  1.000000	  1.000000)
  (  0.000000	  1.000000	  1.000000)
  (  1.500000	  0.000000	  0.000000)
  (  1.500000	  1.500000	  0.000000)
  (  1.000000	  1.500000	  0.000000)
  (  1.500000	  0.000000	  1.000000)
  (  1.500000	  1.500000	  1.000000)
  (  1.000000	  1.500000	  1.000000)
  (  0.000000	 -0.500000	  0.000000)
  (  0.500000	 -0.500000	  0.000000)
  (  0.500000	  0.000000	  0.000000)
  (  0.000000	 -0.500000	  1.000000)
  (  0.500000	 -0.500000	  1.000000)
  (  0.500000	  0.000000	  1.000000)
  (  0.500000	  1.000000	  0.000000)
  (  0.500000	  1.500000	  0.000000)
  (  0.000000	  1.500000	  0.000000)
  (  0.000000	  1.000000	  0.500000)
  (  0.500000	  1.000000	  0.500000)
  (  0.500000	  1.500000	  0.500000)
  (  0.000000	  1.500000	  0.500000)
  (  0.500000	  1.000000	  1.000000)
  (  1.500000	  1.000000	  0.000000)
  (  1.500000	  1.000000	  1.000000)
  (  0.000000	  0.000000	  0.500000)
  (  0.500000	  0.000000	  0.500000)
  (  1.000000	  0.000000	  0.500000)
  (  1.500000	  0.000000	  0.500000)
  (  1.000000	  1.000000	  0.500000)
  (  1.500000	  1.000000	  0.500000)
  (  0.000000	 -0.500000	  0.500000)
  (  0.500000	 -0.500000	  0.500000)
  (  1.000000	  1.500000	  0.500000)
  (  1.500000	  1.500000	  0.500000)
);

blocks
(
  hex ( 0 16 20 3 30 31 24 23) (10 10 10) simpleGrading (1 1 1)
  hex ( 1 8 28 2 32 33 35 34) (10 10 10) simpleGrading (1 1 1)
  hex ( 14 15 16 0 36 37 31 30) (10 10 10) simpleGrading (1 1 1)
  hex ( 3 20 21 22 23 24 25 26) (10 10 10) simpleGrading (1 1 1)
  hex ( 16 1 2 20 31 32 34 24) (5 10 10) simpleGrading (1 1 1)
  hex ( 2 28 9 10 34 35 39 38) (10 4 10) simpleGrading (1 1 1)
  hex ( 30 31 24 23 4 19 27 7) (10 10 1) simpleGrading (1 1 1)
  hex ( 32 33 35 34 5 11 29 6) (10 10 1) simpleGrading (1 1 1)
  hex ( 36 37 31 30 17 18 19 4) (10 10 1) simpleGrading (1 1 1)
  hex ( 31 32 34 24 19 5 6 27) (5 10 1) simpleGrading (1 1 1)
  hex ( 34 35 39 38 6 29 12 13) (10 4 1) simpleGrading (1 1 1)
);

edges
(
);

patches
(
  patch wall
  (
    (0 30 23 3)
    (8 28 35 33)
    (1 8 33 32)
    (14 36 30 0)
    (15 16 31 37)
    (14 15 37 36)
    (3 23 26 22)
    (22 26 25 21)
    (20 21 25 24)
    (3 22 21 20)
    (23 24 25 26)
    (16 1 32 31)
    (2 34 38 10)
    (10 38 39 9)
    (28 9 39 35)
    (30 4 7 23)
    (33 35 29 11)
    (32 33 11 5)
    (36 17 4 30)
    (37 31 19 18)
    (36 37 18 17)
    (31 32 5 19)
    (34 6 13 38)
    (38 13 12 39)
    (35 39 12 29)
  )

  patch empty
  (
    (0 3 20 16)
    (1 2 28 8)
    (14 0 16 15)
    (16 20 2 1)
    (2 10 9 28)
    (4 19 27 7)
    (5 11 29 6)
    (17 18 19 4)
    (19 5 6 27)
    (6 29 12 13)
  )

  patch moving
  (
    (20 24 34 2)
    (23 7 27 24)
    (24 27 6 34)
  )

);

mergePatchPairs();

